/*--------------------------------*- C++ -*----------------------------------*\
| =========                 |                                                 |
| \\      /  F ield         | OpenFOAM: The Open Source CFD Toolbox           |
|  \\    /   O peration     | Version:  v1912                                 |
|   \\  /    A nd           | Website:  www.openfoam.com                      |
|    \\/     M anipulation  |                                                 |
\*---------------------------------------------------------------------------*/
FoamFile
{
    version     2.0;
    format      ascii;
    class       volScalarField;
    object      p;
}
// * * * * * * * * * * * * * * * * * * * * * * * * * * * * * * * * * * * * * //

#include "flowState"

dimensions      [0 2 -2 0 0 0 0];

internalField   uniform $pTotal;

boundaryField
{
    "(Inlet|Top)"
    {
        type            freestreamPressure;
        freestreamValue $internalField;
    }

    Outlet
    {
        type            freestreamPressure;
        freestreamValue $internalField;
    }

    "(Airfoil.*|Bottom)"
    {
        type            zeroGradient;
    }
    oversetPatch
    {
        type            overset;
    }

    "(Front|Back)" //frontAndBack
    {
        type            empty;
    }
}

// ************************************************************************* //
